examples/test_perturbation_outputs/pert_min_loss/pglib_opf_case14_ieee.m
%% MATPOWER Case Format : Version 2
function mpc = pglib_opf_case14_ieee
mpc.version = '2';

%%-----  Power Flow Data  -----%%
%% system MVA base
mpc.baseMVA = 100.0;
%% bus data
%    bus_i    type    Pd    Qd    Gs    Bs    area    Vm    Va    baseKV    zone    Vmax    Vmin
mpc.bus = [
	1	3	0.0	0.0	0.0	0.0	1	1.0	0.0	1.0	1	1.06	0.94				
	2	2	21.7	12.7	0.0	0.0	1	1.0	0.0	1.0	1	1.06	0.94				
	3	2	94.2	19.0	0.0	0.0	1	1.0	0.0	1.0	1	1.06	0.94				
	4	1	47.8	-3.9	0.0	0.0	1	1.0	0.0	1.0	1	1.06	0.94				
	5	1	7.6	1.6	0.0	0.0	1	1.0	0.0	1.0	1	1.06	0.94				
	6	2	11.2	7.5	0.0	0.0	1	1.0	0.0	1.0	1	1.06	0.94				
	7	1	0.0	0.0	0.0	0.0	1	1.0	0.0	1.0	1	1.06	0.94				
	8	2	0.0	0.0	0.0	0.0	1	1.0	0.0	1.0	1	1.06	0.94				
	9	1	29.5	16.6	0.0	19.0	1	1.0	0.0	1.0	1	1.06	0.94				
	10	1	9.0	5.8	0.0	0.0	1	1.0	0.0	1.0	1	1.06	0.94				
	11	1	3.5000000000000004	1.8000000000000003	0.0	0.0	1	1.0	0.0	1.0	1	1.06	0.94				
	12	1	6.1	1.6	0.0	0.0	1	1.0	0.0	1.0	1	1.06	0.94				
	13	1	13.5	5.8	0.0	0.0	1	1.0	0.0	1.0	1	1.06	0.94				
	14	1	14.899999999999999	5.0	0.0	0.0	1	1.0	0.0	1.0	1	1.06	0.94				
];

%% generator data
%    bus    Pg    Qg    Qmax    Qmin    Vg    mBase    status    Pmax    Pmin    Pc1    Pc2    Qc1min    Qc1max    Qc2min    Qc2max    ramp_agc    ramp_10    ramp_30    ramp_q    apf
mpc.gen = [
	1	170.0	5.0	10.0	0.0	1.0	100.0	1	340.0	0.0															
	2	29.5	0.0	30.0	-30.0	1.0	100.0	1	59.0	0.0															
	3	0.0	20.0	40.0	0.0	1.0	100.0	1	0.0	0.0															
	6	0.0	9.0	24.0	-6.0	1.0	100.0	1	0.0	0.0															
	8	0.0	9.0	24.0	-6.0	1.0	100.0	1	0.0	0.0															
];

%% branch data
%    f_bus    t_bus    r    x    b    rateA    rateB    rateC    ratio    angle    status    angmin    angmax
mpc.branch = [
	1	2	0.019338752986968643	0.059043782121269685	-0.00011718326843366833	472.0	472.0	472.0	0	0	1	-29.999999999999996	29.999999999999996								
	1	5	0.05702293127163077	0.2353681967731679	-0.00011718015060419269	128.0	128.0	128.0	0	0	1	-29.999999999999996	29.999999999999996								
	2	3	0.046611416018009194	0.1963730943616235	-0.03422348965434376	145.0	145.0	145.0	0	0	1	-29.999999999999996	29.999999999999996								
	2	4	0.057785552177806815	0.17533177495302119	-0.026562338126745046	158.0	158.0	158.0	0	0	1	-29.999999999999996	29.999999999999996								
	2	5	0.05648903298275961	0.1724705575810145	-0.0001172087566616503	161.0	161.0	161.0	0	0	1	-29.999999999999996	29.999999999999996								
	3	4	0.06734129745930095	0.17187739459877513	-0.00011724662242392935	160.0	160.0	160.0	0	0	1	-29.999999999999996	29.999999999999996								
	4	5	0.01333460918266545	0.042061436923595194	-0.00011722278047915977	664.0	664.0	664.0	0	0	1	-29.999999999999996	29.999999999999996								
	4	7	0.0016232945959630952	0.2100592464888279	-0.00011721704470816341	141.0	141.0	141.0	0.978	0.0	1	-29.999999999999996	29.999999999999996								
	4	9	0.011624420935110668	0.5620162680687991	-0.035331505650727735	53.0	53.0	53.0	0.969	0.0	1	-29.999999999999996	29.999999999999996								
	5	6	0.0023296237873072514	0.25164041077233734	-0.00011716711182209572	117.0	117.0	117.0	0.932	0.0	1	-29.999999999999996	29.999999999999996								
	6	11	0.09225360621125665	0.19319021335335612	-0.00629340490744611	134.0	134.0	134.0	0	0	1	-29.999999999999996	29.999999999999996								
	6	12	0.12332648700652708	0.2566767331260489	-0.00011722924976328115	104.0	104.0	104.0	0	0	1	-29.999999999999996	29.999999999999996								
	6	13	0.06652549926297596	0.1310093787545058	-0.00011980821138824296	200.99999999999997	200.99999999999997	200.99999999999997	0	0	1	-29.999999999999996	29.999999999999996								
	7	8	0.0011614703961589001	0.1776850520628506	-0.00011722535144609631	167.0	167.0	167.0	0	0	1	-29.999999999999996	29.999999999999996								
	7	9	0.00044713266933202274	0.11024800237983845	-0.00011724744674736008	267.0	267.0	267.0	0	0	1	-29.999999999999996	29.999999999999996								
	9	10	0.0318085714107602	0.08449621555734217	-0.05069124014705987	325.0	325.0	325.0	0	0	1	-29.999999999999996	29.999999999999996								
	9	14	0.1199050797271382	0.2550558018199933	-0.003758268722037244	99.0	99.0	99.0	0	0	1	-29.999999999999996	29.999999999999996								
	10	11	0.08355983992062355	0.1956041760583211	-0.00011720047657277867	141.0	141.0	141.0	0	0	1	-29.999999999999996	29.999999999999996								
	12	13	0.2177567185560623	0.19701796505898309	-0.0001172079419578114	99.0	99.0	99.0	0	0	1	-29.999999999999996	29.999999999999996								
	13	14	0.1691942715796511	0.34448390508322974	-0.000117274107077671	76.0	76.0	76.0	0	0	1	-29.999999999999996	29.999999999999996								
];

%%-----  OPF Data  -----%%
%% cost data
%    1    startup    shutdown    n    x1    y1    ...    xn    yn
%    2    startup    shutdown    n    c(n-1)    ...    c0
mpc.gencost = [
	2	0.0	0.0	2	7.9209510000000005	0.0
	2	0.0	0.0	2	23.269494	0.0
	2	0.0	0.0	2	0.0	0.0
	2	0.0	0.0	2	0.0	0.0
	2	0.0	0.0	2	0.0	0.0
];

